  
       XFOIL         Version 6.99
  
 Calculated polar for: NACA 0012                                       
  
 1 1 Reynolds number fixed          Mach number fixed         
  
 xtrf =   1.000 (top)        1.000 (bottom)  
 Mach =   0.000     Re =     0.306 e 6     Ncrit =   9.000
  
   alpha    CL        CD       CDp       CM     Top_Xtr  Bot_Xtr
  ------ -------- --------- --------- -------- -------- --------
  -5.000  -0.6265   0.01165   0.00489   0.0119   1.0000   0.2242
  -4.900  -0.6180   0.01150   0.00481   0.0123   1.0000   0.2363
  -4.800  -0.6095   0.01137   0.00473   0.0127   1.0000   0.2487
  -4.700  -0.6008   0.01126   0.00465   0.0131   1.0000   0.2616
  -4.600  -0.5922   0.01113   0.00459   0.0135   1.0000   0.2747
  -4.500  -0.5836   0.01100   0.00453   0.0139   1.0000   0.2877
  -4.400  -0.5748   0.01089   0.00447   0.0143   1.0000   0.3005
  -4.300  -0.5659   0.01079   0.00442   0.0146   1.0000   0.3137
  -4.200  -0.5569   0.01069   0.00437   0.0149   1.0000   0.3271
  -4.100  -0.5478   0.01060   0.00433   0.0152   1.0000   0.3406
  -4.000  -0.5388   0.01051   0.00429   0.0155   1.0000   0.3538
  -3.900  -0.5297   0.01042   0.00426   0.0158   1.0000   0.3669
  -3.800  -0.5205   0.01034   0.00423   0.0161   1.0000   0.3802
  -3.700  -0.5060   0.01024   0.00419   0.0153   0.9987   0.3960
  -3.600  -0.4898   0.01013   0.00415   0.0141   0.9969   0.4124
  -3.500  -0.4735   0.01003   0.00411   0.0130   0.9952   0.4288
  -3.400  -0.4570   0.00995   0.00409   0.0117   0.9938   0.4450
  -3.300  -0.4418   0.00984   0.00404   0.0108   0.9915   0.4605
  -3.200  -0.4263   0.00974   0.00400   0.0098   0.9891   0.4760
  -3.100  -0.4103   0.00965   0.00397   0.0088   0.9870   0.4915
  -3.000  -0.3939   0.00956   0.00394   0.0076   0.9852   0.5072
  -2.900  -0.3771   0.00948   0.00391   0.0064   0.9836   0.5227
  -2.800  -0.3618   0.00938   0.00387   0.0055   0.9814   0.5375
  -2.700  -0.3476   0.00928   0.00384   0.0049   0.9783   0.5515
  -2.600  -0.3322   0.00919   0.00380   0.0040   0.9758   0.5659
  -2.500  -0.3160   0.00910   0.00377   0.0030   0.9737   0.5804
  -2.400  -0.2993   0.00902   0.00374   0.0019   0.9720   0.5947
  -2.300  -0.2822   0.00893   0.00370   0.0006   0.9706   0.6091
  -2.200  -0.2685   0.00885   0.00367   0.0002   0.9672   0.6226
  -2.100  -0.2542   0.00875   0.00364  -0.0004   0.9640   0.6356
  -2.000  -0.2387   0.00866   0.00360  -0.0012   0.9614   0.6487
  -1.900  -0.2230   0.00858   0.00356  -0.0021   0.9591   0.6617
  -1.800  -0.2070   0.00849   0.00352  -0.0030   0.9571   0.6748
  -1.700  -0.1933   0.00841   0.00349  -0.0034   0.9539   0.6870
  -1.600  -0.1816   0.00833   0.00346  -0.0033   0.9490   0.6984
  -1.500  -0.1680   0.00825   0.00342  -0.0037   0.9453   0.7102
  -1.400  -0.1538   0.00817   0.00339  -0.0041   0.9423   0.7222
  -1.300  -0.1412   0.00810   0.00336  -0.0042   0.9383   0.7329
  -1.200  -0.1304   0.00804   0.00333  -0.0039   0.9324   0.7436
  -1.100  -0.1180   0.00797   0.00330  -0.0040   0.9279   0.7546
  -1.000  -0.1050   0.00790   0.00327  -0.0041   0.9243   0.7647
  -0.900  -0.0955   0.00786   0.00325  -0.0036   0.9172   0.7752
  -0.800  -0.0842   0.00780   0.00323  -0.0033   0.9117   0.7849
  -0.700  -0.0725   0.00775   0.00320  -0.0031   0.9067   0.7946
  -0.600  -0.0627   0.00772   0.00320  -0.0026   0.8992   0.8043
  -0.500  -0.0516   0.00768   0.00317  -0.0023   0.8933   0.8132
  -0.400  -0.0415   0.00765   0.00316  -0.0018   0.8862   0.8228
  -0.300  -0.0310   0.00763   0.00316  -0.0014   0.8789   0.8311
  -0.200  -0.0206   0.00761   0.00314  -0.0009   0.8720   0.8404
  -0.100  -0.0103   0.00760   0.00315  -0.0005   0.8639   0.8479
   0.000  -0.0000   0.00760   0.00313  -0.0000   0.8568   0.8568
   0.100   0.0103   0.00760   0.00315   0.0005   0.8479   0.8639
   0.200   0.0206   0.00761   0.00314   0.0009   0.8403   0.8721
   0.300   0.0310   0.00763   0.00316   0.0014   0.8311   0.8790
   0.400   0.0415   0.00765   0.00316   0.0018   0.8228   0.8861
   0.500   0.0516   0.00768   0.00317   0.0023   0.8132   0.8933
   0.600   0.0627   0.00772   0.00320   0.0026   0.8044   0.8992
   0.700   0.0725   0.00775   0.00320   0.0031   0.7945   0.9067
   0.800   0.0842   0.00780   0.00323   0.0033   0.7849   0.9117
   0.900   0.0955   0.00786   0.00325   0.0036   0.7752   0.9172
   1.000   0.1050   0.00790   0.00327   0.0041   0.7647   0.9243
   1.100   0.1180   0.00797   0.00330   0.0040   0.7546   0.9279
   1.200   0.1304   0.00804   0.00333   0.0039   0.7436   0.9324
   1.300   0.1411   0.00810   0.00336   0.0042   0.7328   0.9382
   1.400   0.1537   0.00817   0.00338   0.0041   0.7220   0.9423
   1.500   0.1680   0.00825   0.00342   0.0037   0.7101   0.9453
   1.600   0.1816   0.00833   0.00346   0.0033   0.6983   0.9490
   1.700   0.1933   0.00841   0.00349   0.0034   0.6870   0.9539
   1.800   0.2070   0.00849   0.00352   0.0030   0.6748   0.9571
   1.900   0.2230   0.00858   0.00356   0.0021   0.6617   0.9591
   2.000   0.2387   0.00866   0.00360   0.0012   0.6487   0.9614
   2.100   0.2542   0.00875   0.00364   0.0004   0.6357   0.9640
   2.200   0.2685   0.00885   0.00367  -0.0002   0.6226   0.9672
   2.300   0.2822   0.00893   0.00370  -0.0006   0.6092   0.9706
   2.400   0.2993   0.00901   0.00374  -0.0019   0.5947   0.9720
   2.500   0.3160   0.00910   0.00377  -0.0030   0.5803   0.9737
   2.600   0.3322   0.00919   0.00380  -0.0040   0.5659   0.9758
   2.700   0.3476   0.00928   0.00384  -0.0049   0.5516   0.9783
   2.800   0.3618   0.00938   0.00387  -0.0055   0.5376   0.9814
   2.900   0.3771   0.00948   0.00390  -0.0064   0.5228   0.9836
   3.000   0.3939   0.00956   0.00394  -0.0076   0.5072   0.9852
   3.100   0.4103   0.00965   0.00397  -0.0088   0.4916   0.9870
   3.200   0.4262   0.00974   0.00400  -0.0098   0.4761   0.9891
   3.300   0.4418   0.00984   0.00404  -0.0108   0.4605   0.9915
   3.400   0.4570   0.00994   0.00408  -0.0117   0.4450   0.9938
   3.500   0.4736   0.01003   0.00411  -0.0130   0.4287   0.9953
   3.600   0.4899   0.01013   0.00415  -0.0141   0.4123   0.9970
   3.700   0.5060   0.01023   0.00419  -0.0153   0.3959   0.9987
   3.800   0.5204   0.01034   0.00423  -0.0161   0.3802   1.0000
   3.900   0.5296   0.01042   0.00426  -0.0158   0.3669   1.0000
   4.000   0.5387   0.01051   0.00429  -0.0155   0.3538   1.0000
   4.100   0.5477   0.01060   0.00432  -0.0152   0.3407   1.0000
   4.200   0.5568   0.01069   0.00436  -0.0149   0.3271   1.0000
   4.300   0.5658   0.01079   0.00441  -0.0146   0.3137   1.0000
   4.400   0.5747   0.01089   0.00447  -0.0143   0.3005   1.0000
   4.500   0.5835   0.01100   0.00452  -0.0139   0.2877   1.0000
   4.600   0.5921   0.01113   0.00459  -0.0135   0.2748   1.0000
   4.700   0.6007   0.01125   0.00465  -0.0131   0.2617   1.0000
   4.800   0.6094   0.01137   0.00472  -0.0127   0.2488   1.0000
   4.900   0.6179   0.01150   0.00480  -0.0123   0.2363   1.0000
   5.000   0.6264   0.01164   0.00489  -0.0119   0.2244   1.0000
