  
       XFOIL         Version 6.99
  
 Calculated polar for: NACA 2412                                       
  
 1 1 Reynolds number fixed          Mach number fixed         
  
 xtrf =   1.000 (top)        1.000 (bottom)  
 Mach =   0.000     Re =     0.229 e 6     Ncrit =   9.000
  
   alpha    CL        CD       CDp       CM     Top_Xtr  Bot_Xtr
  ------ -------- --------- --------- -------- -------- --------
  -5.000  -0.4117   0.01580   0.00821  -0.0386   0.9828   0.1004
  -4.900  -0.3984   0.01564   0.00803  -0.0391   0.9799   0.1048
  -4.800  -0.3840   0.01538   0.00779  -0.0399   0.9776   0.1097
  -4.700  -0.3685   0.01518   0.00764  -0.0409   0.9757   0.1153
  -4.600  -0.3522   0.01504   0.00747  -0.0420   0.9740   0.1215
  -4.500  -0.3361   0.01477   0.00728  -0.0431   0.9725   0.1286
  -4.400  -0.3191   0.01462   0.00712  -0.0444   0.9713   0.1366
  -4.300  -0.3046   0.01439   0.00697  -0.0452   0.9692   0.1447
  -4.200  -0.2922   0.01423   0.00682  -0.0454   0.9659   0.1529
  -4.100  -0.2778   0.01405   0.00669  -0.0462   0.9635   0.1626
  -4.000  -0.2624   0.01384   0.00656  -0.0471   0.9616   0.1734
  -3.900  -0.2463   0.01366   0.00642  -0.0482   0.9600   0.1855
  -3.800  -0.2296   0.01349   0.00630  -0.0494   0.9586   0.1991
  -3.700  -0.2126   0.01332   0.00617  -0.0507   0.9575   0.2139
  -3.600  -0.1954   0.01313   0.00606  -0.0520   0.9565   0.2296
  -3.500  -0.1865   0.01298   0.00598  -0.0516   0.9516   0.2417
  -3.400  -0.1722   0.01281   0.00588  -0.0523   0.9491   0.2575
  -3.300  -0.1565   0.01264   0.00578  -0.0533   0.9471   0.2750
  -3.200  -0.1402   0.01246   0.00567  -0.0543   0.9456   0.2935
  -3.100  -0.1241   0.01228   0.00556  -0.0554   0.9441   0.3129
  -3.000  -0.1081   0.01208   0.00545  -0.0564   0.9427   0.3330
  -2.900  -0.0920   0.01188   0.00534  -0.0574   0.9415   0.3545
  -2.800  -0.0840   0.01175   0.00529  -0.0567   0.9359   0.3718
  -2.700  -0.0710   0.01157   0.00520  -0.0571   0.9328   0.3944
  -2.600  -0.0572   0.01136   0.00510  -0.0576   0.9304   0.4195
  -2.500  -0.0429   0.01115   0.00500  -0.0582   0.9283   0.4482
  -2.400  -0.0288   0.01093   0.00491  -0.0587   0.9265   0.4798
  -2.300  -0.0195   0.01077   0.00487  -0.0582   0.9218   0.5083
  -2.200  -0.0090   0.01060   0.00482  -0.0580   0.9176   0.5388
  -2.100   0.0030   0.01041   0.00475  -0.0580   0.9144   0.5710
  -2.000   0.0155   0.01022   0.00468  -0.0580   0.9118   0.6033
  -1.900   0.0280   0.01004   0.00461  -0.0581   0.9094   0.6345
  -1.800   0.0356   0.00994   0.00461  -0.0571   0.9033   0.6605
  -1.700   0.0461   0.00980   0.00456  -0.0567   0.8993   0.6882
  -1.600   0.0575   0.00965   0.00450  -0.0564   0.8961   0.7156
  -1.500   0.0691   0.00952   0.00445  -0.0561   0.8932   0.7411
  -1.400   0.0770   0.00945   0.00446  -0.0552   0.8869   0.7643
  -1.300   0.0872   0.00936   0.00443  -0.0546   0.8825   0.7878
  -1.200   0.0982   0.00927   0.00439  -0.0541   0.8790   0.8095
  -1.100   0.1082   0.00922   0.00438  -0.0535   0.8743   0.8300
  -1.000   0.1179   0.00918   0.00438  -0.0528   0.8687   0.8494
  -0.900   0.1291   0.00914   0.00435  -0.0523   0.8643   0.8675
  -0.800   0.1415   0.00911   0.00431  -0.0521   0.8608   0.8839
  -0.700   0.1524   0.00912   0.00434  -0.0517   0.8543   0.8988
  -0.600   0.1654   0.00911   0.00432  -0.0517   0.8492   0.9122
  -0.500   0.1791   0.00910   0.00427  -0.0519   0.8451   0.9246
  -0.400   0.1935   0.00913   0.00429  -0.0523   0.8389   0.9353
  -0.300   0.2091   0.00914   0.00427  -0.0529   0.8334   0.9446
  -0.200   0.2241   0.00914   0.00422  -0.0534   0.8288   0.9542
  -0.100   0.2421   0.00916   0.00422  -0.0546   0.8223   0.9606
   0.000   0.2583   0.00918   0.00420  -0.0554   0.8162   0.9684
   0.100   0.2782   0.00918   0.00414  -0.0570   0.8113   0.9730
   0.200   0.2976   0.00919   0.00414  -0.0587   0.8039   0.9782
   0.300   0.3158   0.00920   0.00409  -0.0600   0.7978   0.9836
   0.400   0.3362   0.00920   0.00405  -0.0619   0.7910   0.9878
   0.500   0.3552   0.00920   0.00402  -0.0634   0.7839   0.9927
   0.600   0.3752   0.00920   0.00395  -0.0652   0.7774   0.9966
   0.700   0.3932   0.00919   0.00393  -0.0667   0.7693   1.0000
   0.800   0.4027   0.00919   0.00386  -0.0663   0.7628   1.0000
   0.900   0.4119   0.00919   0.00384  -0.0660   0.7547   1.0000
   1.000   0.4213   0.00920   0.00379  -0.0656   0.7478   1.0000
   1.100   0.4306   0.00922   0.00377  -0.0653   0.7401   1.0000
   1.200   0.4401   0.00923   0.00373  -0.0649   0.7329   1.0000
   1.300   0.4495   0.00926   0.00371  -0.0646   0.7258   1.0000
   1.400   0.4589   0.00928   0.00370  -0.0642   0.7182   1.0000
   1.500   0.4685   0.00932   0.00368  -0.0639   0.7117   1.0000
   1.600   0.4777   0.00934   0.00369  -0.0635   0.7039   1.0000
   1.700   0.4873   0.00939   0.00367  -0.0631   0.6974   1.0000
   1.800   0.4967   0.00942   0.00368  -0.0628   0.6898   1.0000
   1.900   0.5061   0.00946   0.00368  -0.0624   0.6830   1.0000
   2.000   0.5156   0.00951   0.00369  -0.0621   0.6761   1.0000
   2.100   0.5250   0.00955   0.00370  -0.0617   0.6689   1.0000
   2.200   0.5346   0.00962   0.00370  -0.0613   0.6628   1.0000
   2.300   0.5440   0.00966   0.00374  -0.0610   0.6554   1.0000
   2.400   0.5535   0.00972   0.00375  -0.0606   0.6490   1.0000
   2.500   0.5630   0.00977   0.00378  -0.0602   0.6422   1.0000
   2.600   0.5724   0.00983   0.00380  -0.0599   0.6355   1.0000
   2.700   0.5820   0.00990   0.00382  -0.0595   0.6296   1.0000
   2.800   0.5914   0.00995   0.00387  -0.0591   0.6224   1.0000
   2.900   0.6009   0.01002   0.00389  -0.0588   0.6163   1.0000
   3.000   0.6104   0.01009   0.00394  -0.0584   0.6098   1.0000
   3.100   0.6199   0.01015   0.00398  -0.0580   0.6031   1.0000
   3.200   0.6295   0.01024   0.00401  -0.0577   0.5975   1.0000
   3.300   0.6389   0.01029   0.00407  -0.0573   0.5904   1.0000
   3.400   0.6483   0.01036   0.00410  -0.0569   0.5842   1.0000
   3.500   0.6578   0.01044   0.00415  -0.0566   0.5780   1.0000
   3.600   0.6672   0.01050   0.00421  -0.0562   0.5713   1.0000
   3.700   0.6767   0.01060   0.00424  -0.0558   0.5655   1.0000
   3.800   0.6861   0.01065   0.00432  -0.0555   0.5586   1.0000
   3.900   0.6955   0.01073   0.00437  -0.0551   0.5521   1.0000
   4.000   0.7050   0.01082   0.00442  -0.0547   0.5460   1.0000
   4.100   0.7144   0.01088   0.00449  -0.0543   0.5389   1.0000
   4.200   0.7238   0.01098   0.00453  -0.0539   0.5328   1.0000
   4.300   0.7333   0.01105   0.00460  -0.0536   0.5258   1.0000
   4.400   0.7427   0.01113   0.00466  -0.0532   0.5191   1.0000
   4.500   0.7521   0.01122   0.00472  -0.0528   0.5125   1.0000
   4.600   0.7615   0.01129   0.00480  -0.0524   0.5052   1.0000
   4.700   0.7709   0.01140   0.00486  -0.0521   0.4990   1.0000
   4.800   0.7804   0.01146   0.00494  -0.0517   0.4914   1.0000
   4.900   0.7897   0.01156   0.00500  -0.0513   0.4846   1.0000
   5.000   0.7992   0.01164   0.00508  -0.0510   0.4772   1.0000
