  
       XFOIL         Version 6.99
  
 Calculated polar for: NACA 2412                                       
  
 1 1 Reynolds number fixed          Mach number fixed         
  
 xtrf =   1.000 (top)        1.000 (bottom)  
 Mach =   0.000     Re =     0.229 e 6     Ncrit =   9.000
  
   alpha    CL        CD       CDp       CM     Top_Xtr  Bot_Xtr
  ------ -------- --------- --------- -------- -------- --------
  -5.000  -0.4117   0.01580   0.00821  -0.0386   0.9828   0.1004
  -4.800  -0.3840   0.01538   0.00779  -0.0399   0.9776   0.1097
  -4.600  -0.3522   0.01504   0.00747  -0.0420   0.9740   0.1215
  -4.400  -0.3191   0.01462   0.00712  -0.0444   0.9713   0.1366
  -4.200  -0.2922   0.01423   0.00682  -0.0454   0.9659   0.1529
  -4.000  -0.2624   0.01384   0.00656  -0.0471   0.9616   0.1734
  -3.800  -0.2296   0.01349   0.00630  -0.0494   0.9586   0.1991
  -3.400  -0.1722   0.01281   0.00588  -0.0523   0.9491   0.2575
  -3.200  -0.1402   0.01246   0.00567  -0.0543   0.9456   0.2935
  -3.000  -0.1080   0.01208   0.00545  -0.0564   0.9427   0.3330
  -2.800  -0.0840   0.01175   0.00529  -0.0567   0.9359   0.3718
  -2.600  -0.0572   0.01136   0.00510  -0.0576   0.9304   0.4195
  -2.400  -0.0288   0.01093   0.00491  -0.0587   0.9265   0.4798
  -2.200  -0.0090   0.01060   0.00482  -0.0580   0.9176   0.5388
  -2.000   0.0155   0.01022   0.00468  -0.0580   0.9118   0.6033
  -1.800   0.0356   0.00994   0.00461  -0.0571   0.9033   0.6605
  -1.600   0.0575   0.00965   0.00450  -0.0564   0.8961   0.7156
  -1.400   0.0770   0.00945   0.00446  -0.0552   0.8869   0.7643
  -1.200   0.0982   0.00927   0.00439  -0.0541   0.8790   0.8095
  -1.000   0.1179   0.00918   0.00438  -0.0528   0.8687   0.8494
  -0.600   0.1654   0.00911   0.00432  -0.0517   0.8492   0.9122
  -0.400   0.1935   0.00913   0.00429  -0.0523   0.8389   0.9353
  -0.200   0.2241   0.00914   0.00422  -0.0534   0.8288   0.9542
   0.000   0.2583   0.00918   0.00420  -0.0554   0.8162   0.9683
   0.200   0.2976   0.00919   0.00414  -0.0587   0.8039   0.9782
   0.400   0.3362   0.00920   0.00405  -0.0619   0.7910   0.9878
   0.600   0.3752   0.00920   0.00395  -0.0652   0.7774   0.9966
   0.800   0.4027   0.00919   0.00386  -0.0663   0.7628   1.0000
   1.000   0.4213   0.00920   0.00379  -0.0656   0.7478   1.0000
   1.200   0.4401   0.00923   0.00373  -0.0649   0.7329   1.0000
   1.400   0.4589   0.00928   0.00370  -0.0642   0.7182   1.0000
   1.600   0.4777   0.00934   0.00369  -0.0635   0.7038   1.0000
   1.800   0.4967   0.00942   0.00368  -0.0628   0.6898   1.0000
   2.000   0.5156   0.00951   0.00369  -0.0621   0.6761   1.0000
   2.200   0.5346   0.00962   0.00370  -0.0613   0.6628   1.0000
   2.400   0.5535   0.00972   0.00375  -0.0606   0.6490   1.0000
   2.600   0.5724   0.00983   0.00380  -0.0599   0.6354   1.0000
   2.800   0.5914   0.00995   0.00387  -0.0591   0.6224   1.0000
   3.000   0.6104   0.01009   0.00394  -0.0584   0.6098   1.0000
   3.400   0.6483   0.01036   0.00410  -0.0569   0.5842   1.0000
   3.600   0.6672   0.01050   0.00421  -0.0562   0.5712   1.0000
   3.800   0.6861   0.01065   0.00432  -0.0555   0.5586   1.0000
   4.000   0.7050   0.01082   0.00442  -0.0547   0.5460   1.0000
   4.200   0.7238   0.01098   0.00453  -0.0539   0.5328   1.0000
   4.400   0.7427   0.01113   0.00466  -0.0532   0.5190   1.0000
   4.600   0.7615   0.01129   0.00480  -0.0524   0.5052   1.0000
   4.800   0.7804   0.01146   0.00494  -0.0517   0.4913   1.0000
   5.000   0.7992   0.01164   0.00508  -0.0510   0.4772   1.0000
   5.200   0.8179   0.01183   0.00523  -0.0502   0.4627   1.0000
   5.400   0.8365   0.01202   0.00540  -0.0495   0.4476   1.0000
   5.600   0.8550   0.01222   0.00556  -0.0487   0.4317   1.0000
   5.800   0.8735   0.01243   0.00574  -0.0480   0.4150   1.0000
   6.000   0.8918   0.01264   0.00593  -0.0472   0.3971   1.0000
   6.200   0.9099   0.01287   0.00614  -0.0464   0.3778   1.0000
   6.400   0.9275   0.01314   0.00635  -0.0456   0.3572   1.0000
   6.600   0.9447   0.01346   0.00659  -0.0447   0.3352   1.0000
   6.800   0.9616   0.01380   0.00686  -0.0437   0.3108   1.0000
   7.000   0.9778   0.01421   0.00717  -0.0428   0.2852   1.0000
   7.200   0.9933   0.01469   0.00752  -0.0417   0.2584   1.0000
   7.400   1.0083   0.01521   0.00792  -0.0406   0.2299   1.0000
   7.600   1.0228   0.01580   0.00837  -0.0394   0.2015   1.0000
   7.800   1.0367   0.01645   0.00888  -0.0382   0.1747   1.0000
   8.000   1.0498   0.01716   0.00946  -0.0369   0.1515   1.0000
   8.200   1.0631   0.01786   0.01005  -0.0356   0.1321   1.0000
   8.400   1.0759   0.01859   0.01069  -0.0342   0.1171   1.0000
   8.600   1.0886   0.01931   0.01136  -0.0328   0.1054   1.0000
   8.800   1.1002   0.02009   0.01208  -0.0313   0.0963   1.0000
   9.000   1.1118   0.02084   0.01280  -0.0298   0.0887   1.0000
   9.200   1.1240   0.02155   0.01353  -0.0284   0.0825   1.0000
   9.400   1.1343   0.02234   0.01429  -0.0267   0.0773   1.0000
   9.600   1.1438   0.02314   0.01512  -0.0249   0.0731   1.0000
   9.800   1.1543   0.02381   0.01583  -0.0232   0.0693   1.0000
  10.000   1.1608   0.02481   0.01678  -0.0212   0.0660   1.0000
  10.200   1.1707   0.02562   0.01767  -0.0195   0.0631   1.0000
  10.400   1.1810   0.02639   0.01849  -0.0180   0.0603   1.0000
  10.600   1.1897   0.02728   0.01938  -0.0165   0.0580   1.0000
  10.800   1.1966   0.02863   0.02067  -0.0148   0.0558   1.0000
  11.000   1.2070   0.02941   0.02158  -0.0135   0.0539   1.0000
  11.200   1.2165   0.03031   0.02256  -0.0122   0.0519   1.0000
  11.400   1.2255   0.03126   0.02353  -0.0109   0.0502   1.0000
  11.600   1.2342   0.03247   0.02470  -0.0097   0.0486   1.0000
  11.800   1.2442   0.03381   0.02610  -0.0085   0.0472   1.0000
  12.000   1.2529   0.03487   0.02729  -0.0073   0.0459   1.0000
  12.200   1.2612   0.03600   0.02852  -0.0062   0.0446   1.0000
  12.400   1.2690   0.03714   0.02972  -0.0051   0.0434   1.0000
  12.600   1.2772   0.03830   0.03089  -0.0041   0.0422   1.0000
  12.800   1.2899   0.03984   0.03237  -0.0034   0.0409   1.0000
  13.000   1.2952   0.04133   0.03403  -0.0022   0.0401   1.0000
  13.200   1.2998   0.04284   0.03570  -0.0011   0.0394   1.0000
  13.400   1.3043   0.04445   0.03746  -0.0001   0.0387   1.0000
  13.600   1.3085   0.04609   0.03923   0.0008   0.0379   1.0000
  13.800   1.3118   0.04778   0.04103   0.0016   0.0372   1.0000
  14.000   1.3152   0.04947   0.04282   0.0023   0.0365   1.0000
  14.200   1.3197   0.05110   0.04449   0.0029   0.0358   1.0000
  14.400   1.3270   0.05277   0.04615   0.0035   0.0351   1.0000
  14.600   1.3298   0.05534   0.04882   0.0042   0.0345   1.0000
  14.800   1.3225   0.05792   0.05162   0.0046   0.0342   1.0000
  15.000   1.3145   0.06078   0.05469   0.0047   0.0339   1.0000
