  
       XFOIL         Version 6.99
  
 Calculated polar for: NACA 0012                                       
  
 1 1 Reynolds number fixed          Mach number fixed         
  
 xtrf =   1.000 (top)        1.000 (bottom)  
 Mach =   0.000     Re =     0.305 e 6     Ncrit =   9.000
  
   alpha    CL        CD       CDp       CM     Top_Xtr  Bot_Xtr
  ------ -------- --------- --------- -------- -------- --------
  -5.000  -0.6264   0.01166   0.00490   0.0119   1.0000   0.2246
  -4.800  -0.6094   0.01138   0.00473   0.0127   1.0000   0.2491
  -4.600  -0.5921   0.01114   0.00459   0.0135   1.0000   0.2752
  -4.400  -0.5748   0.01090   0.00447   0.0143   1.0000   0.3009
  -4.200  -0.5568   0.01070   0.00437   0.0149   1.0000   0.3275
  -4.000  -0.5387   0.01052   0.00429   0.0155   1.0000   0.3542
  -3.800  -0.5205   0.01035   0.00424   0.0161   1.0000   0.3807
  -3.600  -0.4905   0.01014   0.00416   0.0142   0.9971   0.4126
  -3.400  -0.4576   0.00996   0.00409   0.0119   0.9939   0.4452
  -3.200  -0.4268   0.00975   0.00401   0.0099   0.9893   0.4763
  -3.000  -0.3945   0.00958   0.00394   0.0078   0.9853   0.5074
  -2.800  -0.3621   0.00940   0.00388   0.0056   0.9816   0.5379
  -2.600  -0.3327   0.00920   0.00381   0.0041   0.9759   0.5663
  -2.400  -0.2999   0.00903   0.00375   0.0020   0.9721   0.5950
  -2.200  -0.2688   0.00886   0.00368   0.0002   0.9674   0.6230
  -2.000  -0.2391   0.00868   0.00361  -0.0012   0.9615   0.6491
  -1.800  -0.2075   0.00851   0.00353  -0.0029   0.9572   0.6752
  -1.600  -0.1818   0.00834   0.00347  -0.0033   0.9492   0.6988
  -1.400  -0.1540   0.00819   0.00340  -0.0041   0.9424   0.7226
  -1.200  -0.1306   0.00805   0.00335  -0.0039   0.9327   0.7441
  -1.000  -0.1052   0.00791   0.00328  -0.0041   0.9245   0.7652
  -0.800  -0.0843   0.00781   0.00324  -0.0033   0.9119   0.7854
  -0.600  -0.0628   0.00773   0.00321  -0.0026   0.8995   0.8048
  -0.400  -0.0415   0.00767   0.00317  -0.0018   0.8866   0.8233
  -0.200  -0.0206   0.00763   0.00315  -0.0009   0.8725   0.8408
   0.000  -0.0000   0.00761   0.00314  -0.0000   0.8572   0.8572
   0.200   0.0206   0.00763   0.00315   0.0009   0.8408   0.8725
   0.400   0.0415   0.00767   0.00317   0.0018   0.8233   0.8865
   0.600   0.0628   0.00773   0.00321   0.0026   0.8049   0.8995
   0.800   0.0843   0.00781   0.00324   0.0033   0.7854   0.9119
   1.000   0.1052   0.00791   0.00328   0.0041   0.7652   0.9245
   1.200   0.1306   0.00805   0.00335   0.0039   0.7441   0.9327
   1.400   0.1540   0.00819   0.00340   0.0041   0.7225   0.9424
   1.600   0.1818   0.00834   0.00347   0.0033   0.6988   0.9492
   1.800   0.2074   0.00851   0.00353   0.0029   0.6752   0.9572
   2.000   0.2391   0.00868   0.00361   0.0012   0.6491   0.9616
   2.200   0.2688   0.00886   0.00368  -0.0002   0.6230   0.9674
   2.400   0.2999   0.00903   0.00375  -0.0020   0.5951   0.9721
   2.600   0.3327   0.00920   0.00381  -0.0041   0.5662   0.9759
   2.800   0.3621   0.00940   0.00388  -0.0056   0.5379   0.9817
   3.000   0.3945   0.00957   0.00394  -0.0078   0.5075   0.9853
   3.200   0.4268   0.00975   0.00401  -0.0099   0.4763   0.9893
   3.400   0.4576   0.00995   0.00409  -0.0119   0.4452   0.9939
   3.600   0.4905   0.01014   0.00416  -0.0142   0.4125   0.9971
   3.800   0.5204   0.01034   0.00423  -0.0161   0.3807   1.0000
   4.000   0.5386   0.01051   0.00429  -0.0155   0.3542   1.0000
   4.200   0.5568   0.01070   0.00437  -0.0149   0.3275   1.0000
   4.400   0.5747   0.01090   0.00447  -0.0143   0.3010   1.0000
   4.600   0.5921   0.01114   0.00459  -0.0135   0.2752   1.0000
   4.800   0.6093   0.01138   0.00473  -0.0127   0.2491   1.0000
   5.000   0.6263   0.01165   0.00489  -0.0119   0.2247   1.0000
   5.200   0.6431   0.01195   0.00509  -0.0110   0.2007   1.0000
   5.400   0.6596   0.01227   0.00530  -0.0101   0.1789   1.0000
   5.600   0.6761   0.01259   0.00553  -0.0091   0.1590   1.0000
   5.800   0.6922   0.01295   0.00579  -0.0081   0.1416   1.0000
   6.000   0.7082   0.01331   0.00608  -0.0070   0.1269   1.0000
   6.200   0.7242   0.01368   0.00639  -0.0059   0.1145   1.0000
   6.400   0.7400   0.01406   0.00674  -0.0048   0.1042   1.0000
   6.600   0.7551   0.01453   0.00712  -0.0035   0.0954   1.0000
   6.800   0.7716   0.01485   0.00746  -0.0025   0.0882   1.0000
   7.000   0.7866   0.01534   0.00791  -0.0012   0.0820   1.0000
   7.200   0.8028   0.01569   0.00827  -0.0001   0.0766   1.0000
   7.400   0.8169   0.01629   0.00882   0.0013   0.0719   1.0000
   7.600   0.8335   0.01663   0.00920   0.0023   0.0679   1.0000
   7.800   0.8485   0.01712   0.00967   0.0035   0.0642   1.0000
   8.000   0.8630   0.01772   0.01028   0.0048   0.0612   1.0000
   8.200   0.8793   0.01814   0.01074   0.0059   0.0583   1.0000
   8.400   0.8948   0.01863   0.01122   0.0069   0.0557   1.0000
   8.600   0.9082   0.01947   0.01204   0.0083   0.0533   1.0000
   8.800   0.9250   0.01989   0.01255   0.0092   0.0511   1.0000
   9.000   0.9410   0.02040   0.01308   0.0102   0.0491   1.0000
   9.200   0.9562   0.02102   0.01369   0.0112   0.0474   1.0000
   9.400   0.9695   0.02208   0.01473   0.0123   0.0457   1.0000
   9.600   0.9858   0.02259   0.01537   0.0133   0.0443   1.0000
   9.800   1.0015   0.02318   0.01602   0.0142   0.0427   1.0000
  10.000   1.0168   0.02377   0.01663   0.0151   0.0413   1.0000
  10.200   1.0312   0.02458   0.01741   0.0160   0.0401   1.0000
  10.400   1.0445   0.02587   0.01874   0.0170   0.0390   1.0000
  10.600   1.0589   0.02660   0.01962   0.0181   0.0381   1.0000
  10.800   1.0727   0.02742   0.02055   0.0191   0.0371   1.0000
  11.000   1.0860   0.02821   0.02143   0.0202   0.0361   1.0000
  11.200   1.0991   0.02897   0.02222   0.0212   0.0352   1.0000
  11.400   1.1120   0.02983   0.02307   0.0221   0.0343   1.0000
  11.600   1.1236   0.03163   0.02488   0.0229   0.0334   1.0000
  11.800   1.1323   0.03254   0.02600   0.0245   0.0329   1.0000
  12.000   1.1400   0.03369   0.02733   0.0260   0.0323   1.0000
  12.200   1.1452   0.03491   0.02870   0.0278   0.0318   1.0000
  12.400   1.1494   0.03618   0.03011   0.0296   0.0313   1.0000
  12.600   1.1530   0.03749   0.03154   0.0313   0.0308   1.0000
  12.800   1.1562   0.03883   0.03299   0.0328   0.0304   1.0000
  13.000   1.1584   0.04023   0.03450   0.0341   0.0300   1.0000
  13.200   1.1610   0.04165   0.03599   0.0352   0.0296   1.0000
  13.400   1.1642   0.04316   0.03756   0.0360   0.0292   1.0000
  13.600   1.1668   0.04500   0.03944   0.0367   0.0288   1.0000
  14.000   1.1519   0.05061   0.04537   0.0377   0.0283   1.0000
  14.200   1.1408   0.05365   0.04862   0.0373   0.0281   1.0000
  14.400   1.1282   0.05718   0.05235   0.0362   0.0280   1.0000
  14.600   1.1137   0.06130   0.05667   0.0344   0.0279   1.0000
  14.800   1.0976   0.06599   0.06156   0.0319   0.0278   1.0000
  15.000   1.0795   0.07136   0.06711   0.0287   0.0278   1.0000
